<?xml version="1.0" encoding="UTF-8"?>

<!-- generated on 2024-12-01 15:05:16 by Eclipse SUMO netedit Version 1.20.0
<configuration xmlns:xsi="http://www.w3.org/2001/XMLSchema-instance" xsi:noNamespaceSchemaLocation="http://sumo.dlr.de/xsd/neteditConfiguration.xsd">

    <input>
        <sumocfg-file value="/Users/zhaomingzeng/Desktop/research project/transit_RL project 1/Coding/SUMO config/002.sumocfg"/>
        <additional-files value="/Users/zhaomingzeng/Desktop/research project/transit_RL project 1/Coding/SUMO config/002.add.xml"/>
        <route-files value="/Users/zhaomingzeng/Desktop/research project/transit_RL project 1/Coding/SUMO config/002.rou.xml"/>
        <sumo-net-file value="/Users/zhaomingzeng/Desktop/research project/transit_RL project 1/Coding/SUMO config/002.net.xml"/>
    </input>

    <output>
        <output-file value="/Users/zhaomingzeng/Desktop/research project/transit_RL project 1/Coding/SUMO config/002.net.xml"/>
    </output>

    <processing>
        <offset.disable-normalization value="true"/>
    </processing>

    <junctions>
        <no-turnarounds value="true"/>
    </junctions>

    <netedit>
        <new-network value="false"/>
    </netedit>

</configuration>
-->

<net version="1.20" junctionCornerDetail="5" limitTurnSpeed="5.50" xmlns:xsi="http://www.w3.org/2001/XMLSchema-instance" xsi:noNamespaceSchemaLocation="http://sumo.dlr.de/xsd/net_file.xsd">

    <location netOffset="0.00,0.00" convBoundary="-300.00,0.00,1000.00,0.00" origBoundary="10000000000.00,10000000000.00,-10000000000.00,-10000000000.00" projParameter="!"/>

    <edge id=":J1_0" function="internal">
        <lane id=":J1_0_0" index="0" disallow="pedestrian" speed="13.89" length="0.10" shape="100.00,-1.60 100.00,-1.60"/>
    </edge>
    <edge id=":J2_0" function="internal">
        <lane id=":J2_0_0" index="0" disallow="pedestrian" speed="13.89" length="0.10" shape="300.00,-1.60 300.00,-1.60"/>
    </edge>
    <edge id=":J3_0" function="internal">
        <lane id=":J3_0_0" index="0" disallow="pedestrian" speed="13.89" length="0.10" shape="700.00,-1.60 700.00,-1.60"/>
    </edge>

    <edge id="E0" from="J0" to="J1" priority="-1">
        <lane id="E0_0" index="0" allow="pedestrian" speed="13.89" length="400.00" width="2.00" shape="-300.00,-4.20 100.00,-4.20"/>
        <lane id="E0_1" index="1" disallow="pedestrian" speed="13.89" length="400.00" shape="-300.00,-1.60 100.00,-1.60"/>
    </edge>
    <edge id="E1" from="J1" to="J2" priority="-1">
        <lane id="E1_0" index="0" allow="pedestrian" speed="13.89" length="200.00" width="2.00" shape="100.00,-4.20 300.00,-4.20"/>
        <lane id="E1_1" index="1" disallow="pedestrian" speed="13.89" length="200.00" shape="100.00,-1.60 300.00,-1.60"/>
    </edge>
    <edge id="E2" from="J2" to="J3" priority="-1">
        <lane id="E2_0" index="0" allow="pedestrian" speed="13.89" length="400.00" width="2.00" shape="300.00,-4.20 700.00,-4.20"/>
        <lane id="E2_1" index="1" disallow="pedestrian" speed="13.89" length="400.00" shape="300.00,-1.60 700.00,-1.60"/>
    </edge>
    <edge id="E3" from="J3" to="J4" priority="-1">
        <lane id="E3_0" index="0" allow="pedestrian" speed="13.89" length="300.00" width="2.00" shape="700.00,-4.20 1000.00,-4.20"/>
        <lane id="E3_1" index="1" disallow="pedestrian" speed="13.89" length="300.00" shape="700.00,-1.60 1000.00,-1.60"/>
    </edge>

    <junction id="J0" type="dead_end" x="-300.00" y="0.00" incLanes="" intLanes="" shape="-300.00,0.00 -300.00,-5.20"/>
    <junction id="J1" type="priority" x="100.00" y="0.00" incLanes="E0_0 E0_1" intLanes=":J1_0_0" shape="100.00,0.00 100.00,-5.20 100.00,0.00">
        <request index="0" response="0" foes="0" cont="0"/>
    </junction>
    <junction id="J2" type="priority" x="300.00" y="0.00" incLanes="E1_0 E1_1" intLanes=":J2_0_0" shape="300.00,0.00 300.00,-5.20 300.00,0.00">
        <request index="0" response="0" foes="0" cont="0"/>
    </junction>
    <junction id="J3" type="priority" x="700.00" y="0.00" incLanes="E2_0 E2_1" intLanes=":J3_0_0" shape="700.00,0.00 700.00,-5.20 700.00,0.00">
        <request index="0" response="0" foes="0" cont="0"/>
    </junction>
    <junction id="J4" type="dead_end" x="1000.00" y="0.00" incLanes="E3_0 E3_1" intLanes="" shape="1000.00,-5.20 1000.00,0.00"/>

    <connection from="E0" to="E1" fromLane="1" toLane="1" via=":J1_0_0" dir="s" state="M"/>
    <connection from="E1" to="E2" fromLane="1" toLane="1" via=":J2_0_0" dir="s" state="M"/>
    <connection from="E2" to="E3" fromLane="1" toLane="1" via=":J3_0_0" dir="s" state="M"/>

    <connection from=":J1_0" to="E1" fromLane="0" toLane="1" dir="s" state="M"/>
    <connection from=":J2_0" to="E2" fromLane="0" toLane="1" dir="s" state="M"/>
    <connection from=":J3_0" to="E3" fromLane="0" toLane="1" dir="s" state="M"/>

</net>
