<?xml version="1.0" encoding="UTF-8"?>

<!-- generated on 2024-12-01 15:05:16 by Eclipse SUMO sumo Version 1.20.0
-->

<configuration xmlns:xsi="http://www.w3.org/2001/XMLSchema-instance" xsi:noNamespaceSchemaLocation="http://sumo.dlr.de/xsd/sumoConfiguration.xsd">

    <input>
        <net-file value="002.net.xml"/>
        <route-files value="002.rou.xml"/>
        <additional-files value="002.add.xml"/>
    </input>

</configuration>
